  
       XFOIL         Version 6.99
  
 Calculated polar for: Clark Y                                         
  
 1 1 Reynolds number fixed          Mach number fixed         
  
 xtrf =   1.000 (top)        1.000 (bottom)  
 Mach =   0.343     Re =     0.036 e 6     Ncrit =   9.000
  
   alpha    CL        CD       CDp       CM     Top_Xtr  Bot_Xtr
  ------ -------- --------- --------- -------- -------- --------
   0.444  -0.0000   0.03488   0.02497  -0.0382   0.9807   1.0000
