  
       XFOIL         Version 6.99
  
 Calculated polar for: Clark Y                                         
  
 1 1 Reynolds number fixed          Mach number fixed         
  
 xtrf =   1.000 (top)        1.000 (bottom)  
 Mach =   0.343     Re =     0.036 e 6     Ncrit =   5.000
  
   alpha    CL        CD       CDp       CM     Top_Xtr  Bot_Xtr
  ------ -------- --------- --------- -------- -------- --------
   7.744   0.9414   0.05452   0.04250  -0.0447   0.4314   1.0000
